---------------------------------------------------------------------------------------
-- LT-ATES In Italy                                                                  --
-- LGR, Aquifers with natural flow, confined aquifer, without Pc effect and Rainfall.--
-- temperature dependent simulations                                                 --
-- ATES_init.DATA: Blackoil data set to be run with ECLIPSE 100                      --
-- Please note, this data set is intended to illustrate the way in                   --
-- which a blackoil data set can be converted to a thermal data set.                 --
-- For more information, contact me "Itsme.MasoudManafi@gmail.com".                  --
---------------------------------------------------------------------------------------

RUNSPEC
TITLE
   Confined LT-ATES in Italy

DIMENS
   31   25    14  /

WATER
GAS

LGR
-- MAXLGR MAXCELLS 
 1 44550 /


FIELD

TEMP

EQLDIMS
    1  100   10    1   20 /

TABDIMS
    1    1  20  20  15   15    1   20 /

REGDIMS
   15    1    0    0  /

WELLDIMS
    2    24    1    2 /

AQUDIMS
  6 2 2 36 2 7500 2 3 /

NUPCOL
    4 /

START
   1 'JAN' 2000  /

NSTACK
  25 /



GRID     ===============================================================
-------- IN THIS SECTION , THE GEOMETRY OF THE SIMULATION GRID AND THE
-------- ROCK PERMEABILITIES AND POROSITIES ARE DEFINED.
------------------------------------------------------------------------
INIT

TOPS
775*0 /
DXV
31*131.2
/

DYV 
25*131.2
/

DZ
775*38 9300*8.37 775*14.14 /

PORO
-- Inactive cells + active cells (overburden+reservoir) ---
-----------------------------------------------------------
3*0
25*0.0001
3*0
3*0
25*0.0001
3*0
3*0
25*0.0001
3*0
3*0
25*0.0001
3*0
3*0
25*0.0001
3*0
3*0
25*0.0001
3*0
3*0
25*0.0001
3*0
3*0
25*0.0001
3*0
3*0
25*0.0001
3*0
3*0
25*0.0001
3*0
3*0
25*0.0001
3*0
3*0
25*0.0001
3*0
3*0
25*0.0001
3*0
3*0
25*0.0001
3*0
3*0
25*0.0001
3*0
3*0
25*0.0001
3*0
3*0
25*0.0001
3*0
3*0
25*0.0001
3*0
3*0
25*0.0001
3*0
3*0
25*0.0001
3*0
3*0
25*0.0001
3*0
3*0
25*0.0001
3*0
3*0
25*0.0001
3*0
3*0
25*0.0001
3*0
3*0
25*0.0001
3*0
3*0
25*0.197
3*0
3*0
25*0.197
3*0
3*0
25*0.197
3*0
3*0
25*0.197
3*0
3*0
25*0.197
3*0
3*0
25*0.197
3*0
3*0
25*0.197
3*0
3*0
25*0.197
3*0
3*0
25*0.197
3*0
3*0
25*0.197
3*0
3*0
25*0.197
3*0
3*0
25*0.197
3*0
3*0
25*0.197
3*0
3*0
25*0.197
3*0
3*0
25*0.197
3*0
3*0
25*0.197
3*0
3*0
25*0.197
3*0
3*0
25*0.197
3*0
3*0
25*0.197
3*0
3*0
25*0.197
3*0
3*0
25*0.197
3*0
3*0
25*0.197
3*0
3*0
25*0.197
3*0
3*0
25*0.197
3*0
3*0
25*0.197
3*0
3*0
25*0.197
3*0
3*0
25*0.197
3*0
3*0
25*0.197
3*0
3*0
25*0.197
3*0
3*0
25*0.197
3*0
3*0
25*0.197
3*0
3*0
25*0.197
3*0
3*0
25*0.197
3*0
3*0
25*0.197
3*0
3*0
25*0.197
3*0
3*0
25*0.197
3*0
3*0
25*0.197
3*0
3*0
25*0.197
3*0
3*0
25*0.197
3*0
3*0
25*0.197
3*0
3*0
25*0.197
3*0
3*0
25*0.197
3*0
3*0
25*0.197
3*0
3*0
25*0.197
3*0
3*0
25*0.197
3*0
3*0
25*0.197
3*0
3*0
25*0.197
3*0
3*0
25*0.197
3*0
3*0
25*0.197
3*0
3*0
25*0.197
3*0
3*0
25*0.197
3*0
3*0
25*0.197
3*0
3*0
25*0.197
3*0
3*0
25*0.197
3*0
3*0
25*0.197
3*0
3*0
25*0.197
3*0
3*0
25*0.197
3*0
3*0
25*0.197
3*0
3*0
25*0.197
3*0
3*0
25*0.197
3*0
3*0
25*0.197
3*0
3*0
25*0.197
3*0
3*0
25*0.197
3*0
3*0
25*0.197
3*0
3*0
25*0.197
3*0
3*0
25*0.197
3*0
3*0
25*0.197
3*0
3*0
25*0.197
3*0
3*0
25*0.197
3*0
3*0
25*0.197
3*0
3*0
25*0.197
3*0
3*0
25*0.197
3*0
3*0
25*0.197
3*0
3*0
25*0.197
3*0
3*0
25*0.197
3*0
3*0
25*0.197
3*0
3*0
25*0.197
3*0
3*0
25*0.197
3*0
3*0
25*0.197
3*0
3*0
25*0.197
3*0
3*0
25*0.197
3*0
3*0
25*0.197
3*0
3*0
25*0.197
3*0
3*0
25*0.197
3*0
3*0
25*0.197
3*0
3*0
25*0.197
3*0
3*0
25*0.197
3*0
3*0
25*0.197
3*0
3*0
25*0.197
3*0
3*0
25*0.197
3*0
3*0
25*0.197
3*0
3*0
25*0.197
3*0
3*0
25*0.197
3*0
3*0
25*0.197
3*0
3*0
25*0.197
3*0
3*0
25*0.197
3*0
3*0
25*0.197
3*0
3*0
25*0.197
3*0
3*0
25*0.197
3*0
3*0
25*0.197
3*0
3*0
25*0.197
3*0
3*0
25*0.197
3*0
3*0
25*0.197
3*0
3*0
25*0.197
3*0
3*0
25*0.197
3*0
3*0
25*0.197
3*0
3*0
25*0.197
3*0
3*0
25*0.197
3*0
3*0
25*0.197
3*0
3*0
25*0.197
3*0
3*0
25*0.197
3*0
3*0
25*0.197
3*0
3*0
25*0.197
3*0
3*0
25*0.197
3*0
3*0
25*0.197
3*0
3*0
25*0.197
3*0
3*0
25*0.197
3*0
3*0
25*0.197
3*0
3*0
25*0.197
3*0
3*0
25*0.197
3*0
3*0
25*0.197
3*0
3*0
25*0.197
3*0
3*0
25*0.197
3*0
3*0
25*0.197
3*0
3*0
25*0.197
3*0
3*0
25*0.197
3*0
3*0
25*0.197
3*0
3*0
25*0.197
3*0
3*0
25*0.197
3*0
3*0
25*0.197
3*0
3*0
25*0.197
3*0
3*0
25*0.197
3*0
3*0
25*0.197
3*0
3*0
25*0.197
3*0
3*0
25*0.197
3*0
3*0
25*0.197
3*0
3*0
25*0.197
3*0
3*0
25*0.197
3*0
3*0
25*0.197
3*0
3*0
25*0.197
3*0
3*0
25*0.197
3*0
3*0
25*0.197
3*0
3*0
25*0.197
3*0
3*0
25*0.197
3*0
3*0
25*0.197
3*0
3*0
25*0.197
3*0
3*0
25*0.197
3*0
3*0
25*0.197
3*0
3*0
25*0.197
3*0
3*0
25*0.197
3*0
3*0
25*0.197
3*0
3*0
25*0.197
3*0
3*0
25*0.197
3*0
3*0
25*0.197
3*0
3*0
25*0.197
3*0
3*0
25*0.197
3*0
3*0
25*0.197
3*0
3*0
25*0.197
3*0
3*0
25*0.197
3*0
3*0
25*0.197
3*0
3*0
25*0.197
3*0
3*0
25*0.197
3*0
3*0
25*0.197
3*0
3*0
25*0.197
3*0
3*0
25*0.197
3*0
3*0
25*0.197
3*0
3*0
25*0.197
3*0
3*0
25*0.197
3*0
3*0
25*0.197
3*0
3*0
25*0.197
3*0
3*0
25*0.197
3*0
3*0
25*0.197
3*0
3*0
25*0.197
3*0
3*0
25*0.197
3*0
3*0
25*0.197
3*0
3*0
25*0.197
3*0
3*0
25*0.197
3*0
3*0
25*0.197
3*0
3*0
25*0.197
3*0
3*0
25*0.197
3*0
3*0
25*0.197
3*0
3*0
25*0.197
3*0
3*0
25*0.197
3*0
3*0
25*0.197
3*0
3*0
25*0.197
3*0
3*0
25*0.197
3*0
3*0
25*0.197
3*0
3*0
25*0.197
3*0
3*0
25*0.197
3*0
3*0
25*0.197
3*0
3*0
25*0.197
3*0
3*0
25*0.197
3*0
3*0
25*0.197
3*0
3*0
25*0.197
3*0
3*0
25*0.197
3*0
3*0
25*0.197
3*0
3*0
25*0.197
3*0
3*0
25*0.197
3*0
3*0
25*0.197
3*0
3*0
25*0.197
3*0
3*0
25*0.197
3*0
3*0
25*0.197
3*0
3*0
25*0.197
3*0
3*0
25*0.197
3*0
3*0
25*0.197
3*0
3*0
25*0.197
3*0
3*0
25*0.197
3*0
3*0
25*0.197
3*0
3*0
25*0.197
3*0
3*0
25*0.197
3*0
3*0
25*0.197
3*0
3*0
25*0.197
3*0
3*0
25*0.197
3*0
3*0
25*0.197
3*0
3*0
25*0.197
3*0
3*0
25*0.197
3*0
3*0
25*0.197
3*0
3*0
25*0.197
3*0
3*0
25*0.197
3*0
3*0
25*0.197
3*0
3*0
25*0.197
3*0
3*0
25*0.197
3*0
3*0
25*0.197
3*0
3*0
25*0.197
3*0
3*0
25*0.197
3*0
3*0
25*0.197
3*0
3*0
25*0.197
3*0
3*0
25*0.197
3*0
3*0
25*0.197
3*0
3*0
25*0.197
3*0
3*0
25*0.197
3*0
3*0
25*0.197
3*0
3*0
25*0.197
3*0
3*0
25*0.197
3*0
3*0
25*0.197
3*0
3*0
25*0.197
3*0
3*0
25*0.197
3*0
3*0
25*0.197
3*0
3*0
25*0.197
3*0
3*0
25*0.197
3*0
3*0
25*0.197
3*0
3*0
25*0.197
3*0
3*0
25*0.197
3*0
3*0
25*0.197
3*0
3*0
25*0.197
3*0
3*0
25*0.197
3*0
3*0
25*0.197
3*0
3*0
25*0.197
3*0
3*0
25*0.197
3*0
3*0
25*0.197
3*0
3*0
25*0.197
3*0
3*0
25*0.197
3*0
3*0
25*0.197
3*0
3*0
25*0.197
3*0
3*0
25*0.197
3*0
3*0
25*0.197
3*0
3*0
25*0.197
3*0
3*0
25*0.197
3*0
3*0
25*0.197
3*0
3*0
25*0.197
3*0
3*0
25*0.197
3*0
3*0
25*0.197
3*0
3*0
25*0.197
3*0
3*0
25*0.197
3*0
3*0
25*0.197
3*0
3*0
25*0.197
3*0
3*0
25*0.197
3*0
3*0
25*0.197
3*0
3*0
25*0.197
3*0
3*0
25*0.197
3*0
3*0
25*0.197
3*0
3*0
25*0.197
3*0
3*0
25*0.197
3*0
3*0
25*0.197
3*0
3*0
25*0.197
3*0
3*0
25*0.197
3*0
3*0
25*0.197
3*0
3*0
25*0.197
3*0
3*0
25*0.197
3*0
3*0
25*0.197
3*0
3*0
25*0.197
3*0
3*0
25*0.197
3*0
3*0
25*0.197
3*0
3*0
25*0.197
3*0
3*0
25*0.197
3*0
3*0
25*0.197
3*0
3*0
25*0.197
3*0
3*0
25*0.197
3*0
3*0
25*0.197
3*0
3*0
25*0.197
3*0
3*0
25*0.197
3*0
3*0
25*0.197
3*0
3*0
25*0.197
3*0
3*0
25*0.197
3*0
3*0
25*0.197
3*0
3*0
25*0.197
3*0
3*0
25*0.197
3*0
3*0
25*0.197
3*0
3*0
25*0.197
3*0
3*0
25*0.197
3*0
3*0
25*0.0001
3*0
3*0
25*0.0001
3*0
3*0
25*0.0001
3*0
3*0
25*0.0001
3*0
3*0
25*0.0001
3*0
3*0
25*0.0001
3*0
3*0
25*0.0001
3*0
3*0
25*0.0001
3*0
3*0
25*0.0001
3*0
3*0
25*0.0001
3*0
3*0
25*0.0001
3*0
3*0
25*0.0001
3*0
3*0
25*0.0001
3*0
3*0
25*0.0001
3*0
3*0
25*0.0001
3*0
3*0
25*0.0001
3*0
3*0
25*0.0001
3*0
3*0
25*0.0001
3*0
3*0
25*0.0001
3*0
3*0
25*0.0001
3*0
3*0
25*0.0001
3*0
3*0
25*0.0001
3*0
3*0
25*0.0001
3*0
3*0
25*0.0001
3*0
3*0
25*0.0001
3*0
/

PERMX
  775*1.01325E-10
  9300*8700
  775*1.01325E-10/

PERMY
  775*1.01325E-10
  9300*8700
  775*1.01325E-10/

PERMZ
  775*1.01325E-10
  9300*8700
  775*1.01325E-10/

CARFIN 
--Name  I1 I2  J1 J2  K1 K2  NX  NY  NZ  Wells   
LGR1    14 22  9  17  2  12  45  45  22   2 /
ENDFIN


----- aSSIGN A NUMERICAL aQUIFER TO A BLOCK
------- NUM  X  Y  Z    A2   L   POR  PER  DEPTH
AQUNUM 
         1  3   13  8  3.2958E5 3000 0.2 11956 138 3* /
         1  2   13  8  3.2958E5 6000 0.2 11956 138 3* /
         1  1   13  8  3.2958E5 9000 0.2 11956 138 3* /
         2  29  13  8  3.2958E5 3000 0.2 11956 138 3* /
         2  30  13  8  3.2958E5 6000 0.2 11956 138 3* /
         2  31  13  8  3.2958E5 9000 0.2 11956 138 3* /
/

--- rock thermal conductivity (optional if the effect is small)
---
THCONR
 775*94.849894204
 9300*105.27321347
 775*94.849894204  
 /

RPTGRID
 'PORV' 'TRANX' 'TRANY' 'THCONR' 'TRTHERM' 'AQUNUM' 'AQUCON' /


PROPS    ===============================================================
-------- THE PROPS SECTION DEFINES THE REL. PERMEABILITIES, CAPILLARY
-------- PRESSURES, AND THE PVT PROPERTIES OF THE RESERVOIR FLUIDS
----------------------------------------------------------------------

--  SWAT   KRW   PCOW
SWFN
  0.18      0      0
  0.2       0      0
  0.25      0      0 
  0.4       0      0
  0.65     0.1     0 
  0.75     0.2     0
  0.9      0.6     0
  0.95     0.8     0
  1.0      1       0  / 


SGFN 
----Air-----
------------
  0        0       0
  0.1      0       0      
  0.2      0.05    0
  0.28     0.08    0
  0.35     0.1     0
  0.45     0.2     0
  0.5      0.22    0
  0.7      0.43    0
  0.8      0.8     0
  0.82     0.82    0  /


--    REF. PRES. REF. FVF  COMPRESSIBILITY  REF VISCOSITY  VISCOSIBILITY--
--------------------------------------------------------------------------
PVTW
        14.6959   1       4.0e-5          0.3         1.20E-07 /


----- Default E300---
---------------------
ROCK
14.7   3.402E-6 /

--        OIL   WATER   GAS
DENSITY
          45   62.36   0.0765  /

PVZG
---TEMPERATURE (Air) ----
-------------------------
80.33/
--Press     Z           Visc
 14.5	0.9999	0.01857
72.51	0.9987	0.01861
145.03	0.9974	0.01867
362.59	0.9941	0.01889
725.189	0.9909	0.01935
1087.78	0.99025	0.01991
1450.38	1.0074	0.02057
2175.57	1.0326	0.02212
2900.75	1.1089	0.02382
/


-- Define the fluid specific heats---
-------------------------------------
SPECHEAT
  50   0.5  0.9987  0.24028
 160   0.5  1.0355  0.198895
/

--  Define the rock specific heat---
------------------------------------
SPECROCK
  50   86.959
 150   86.959
/
--
-- Water Viscosity as a function of temperature
--
VISCREF
3014.7 0.93 /

WATVISCT
 80  0.8573
135  0.4669
/

-- SWITCH ON OUTPUT OF PROPS DATA
RPTPROPS
 'SPECHEAT'/

SOLUTION ===============================================================
-------- THE SOLUTION SECTION DEFINES THE INITIAL STATE OF THE SOLUTION
-------- VARIABLES (PHASE PRESSURES, SATURATIONS AND GAS-OIL RATIOS)
------------------------------------------------------------------------
-- DATA FOR INITIALISING FLUIDS TO POTENTIAL EQUILIBRIUM
--
--    DATUM  DATUM   OWC    OWC    GOC    GOC    RSVD   RVVD   SOLN
--    DEPTH  PRESS  DEPTH   PCOW  DEPTH   PCOG  TABLE  TABLE   METH
EQUIL
      38     14.8     38     0    38    0       0      0  /

AQUCHWAT
-- Aquifer Depth          Type     pressure           PI              PVTW SALT
-- number                         (EQUIL + 14.7)    (needs checking)
-- left side - initial conditions +4 psi(Hydraulic Gradient)-----
-------------------------------------------------------------------------
     1      0         'PRESSURE'    18.79               10000             1   0.0 /
-- right side - initial conditions matching EQUIL------------------------
-------------------------------------------------------------------------
     2      0         'PRESSURE'    14.79               10000             1   0.0 /
/

--- Define the initial reservoir temperature
--------------------------------------------
RTEMPVD
   38  63.5
   68  63.99374
   98  64.48751
/
    

AQUALIST
   'LEFT'   1 /
   'RIGHT'  2 /
  /

--------- AQ-ID  IX1  IX2  JY1  JY2  KZ1  KZ2  FACE  TRANMULTI
--------------------------------------------------------------
AQUANCON
            1     4     4    1    25   2    13   'I-'  2* YES  2*/
            2     28    28   1    25   2    13   'I+'  2* YES  2*/
/

-- SWITCH ON OUTPUT OF INITIAL SOLUTION
---------------------------------------
RPTSOL
  'PRESSURE' 'TEMP' 'SOIL' 'SGAS' 'SWAT' 'DENO' 'DENG' 'DENW' 'VOIL' 'VGAS' 'VWAT' 'RS' 'AQUANCON' /

SUMMARY ================================================================
-------- THIS SECTION SPECIFIES DATA TO BE WRITTEN TO THE SUMMARY FILES
-------- AND WHICH MAY LATER BE USED WITH THE ECLIPSE GRAPHICS PACKAGE
------------------------------------------------------------------------


EXCEL

BTCNFHEA
---WARM1
 16  10  3  /
 16  10  4  /
 16  10  5  /
 16  10  6  /
 16  10  7  /
 16  10  8  /
 16  10  9  /
 16  10  10 /
 16  10  11 /
 16  10  12 /
---Warm1vicinity
 16  8   8  /
 16  12  8  /
 14  10  8  /
---cold1vicinity
 16  14  8  /
 16  18  8  /
 14  16  8  /
---COLD1
 16  16  3  / 
 16  16  4  / 
 16  16  5  / 
 16  16  6  / 
 16  16  7  / 
 16  16  8  / 
 16  16  9  / 
 16  16  10 / 
 16  16  11 / 
 16  16  12 /
/


BWPR
 16  10  3  /
 16  10  4  /
 16  10  5  /
 16  10  6  /
 16  10  7  /
 16  10  8  /
 16  10  9  /
 16  10  10 /
 16  10  11 /
---COLD1
 16  16  3  / 
 16  16  4  / 
 16  16  5  / 
 16  16  6  / 
 16  16  7  / 
 16  16  8  / 
 16  16  9  / 
 16  16  10 / 
 16  16  11 / 

/

SEPARATE
RUNSUM

FWCT
FRPV
FWPR
FWPR
FGPR
FPR



AAQR
1 2 /


WWPR
'WARM1'
'COLD1'
/

WOPR
'WARM1'
'COLD1'
/

WGPR
'WARM1'
'COLD1'
/

WTPCHEA
'WARM1'
'COLD1'
/

WTICHEA
'WARM1'
'COLD1'
/

WTPRHEA
'WARM1'
'COLD1'
/

WTPTHEA
'WARM1'
'COLD1'
/

WBHP
'WARM1'
'COLD1'
/

WTIRHEA
'WARM1'
'COLD1'
/

WTITHEA
'WARM1'
'COLD1'
/

WBP
'WARM1'
'COLD1'
/

SCHEDULE ===============================================================
-------- THE SCHEDULE SECTION DEFINES THE OPERATIONS TO BE SIMULATED
------------------------------------------------------------------------
-- CONTROLS ON OUTPUT AT EACH REPORT TIME
-----------------------------------------

RPTSCHED
  'PRESSURE' 'TEMP' 'FIPTEMP' 'SOIL' 'SGAS' 'SWAT' 'DENO' 'DENG' 'DENW' 'VOIL' 'VGAS' 'VWAT' 'RS' 'WELSPECS' /

RPTRST
  'PRESSURE' /

LGRON
 'LGR1' /

LGRLOCK
 'LGR1' /
/


TSTEP
5*73
/

-- WELL SPECIFICATION DATA
---------------------------
WELSPECL
       WARM1   G1  'LGR1'  13  18   114    WATER  -1.0  1*   STOP  YES  /
       COLD1   G1  'LGR1'  13  27   114    WATER  -1.0  1*   STOP  YES  /
/

-- COMPLETION SPECIFICATION DATA
--------------------------------
COMPDATL
WARM1 'LGR1' 13 18 1 22 OPEN 0 1* 0.902 3* Z/
COLD1 'LGR1' 13 27 1 22 OPEN 0 1* 0.902 3* Z/
/




-- PRODUCTION WELL CONTROLS
--  WELL     OPEN/  CNTL   OIL  WATER   GAS  LIQU   RES   BHP
--  NAME     SHUT   MODE  RATE   RATE  RATE  RATE  RATE
WCONPROD
    WARM1    OPEN   WRAT   1*    530  /
  /
WCONINJE
    COLD1    WATER  OPEN  RATE   530  /
  /

--  Define the injection temperature
------------------------------------
WTEMP
COLD1  53/
/

TSTEP
18*10
/

WCONPROD
     COLD1   OPEN   WRAT  1*    530  /
  /
WCONINJE
     WARM1   WATER  OPEN  RATE  530  /
  /

WTEMP
WARM1  71.5/
/

TSTEP
18*10
/

WCONPROD
    WARM1    OPEN   WRAT   1*    530  /
  /
WCONINJE
    COLD1    WATER  OPEN  RATE   530  /
  /

WTEMP
COLD1  53/
/

TSTEP
18*10
/

WCONPROD
     COLD1   OPEN   WRAT  1*    530  /
  /
WCONINJE
     WARM1   WATER  OPEN  RATE  530  /
  /

WTEMP
WARM1  71.5/
/

TSTEP
18*10
/

WCONPROD
    WARM1    OPEN   WRAT   1*    530  /
  /
WCONINJE
    COLD1    WATER  OPEN  RATE   530  /
  /

WTEMP
COLD1  53/
/

TSTEP
18*10
/

WCONPROD
     COLD1   OPEN   WRAT  1*    530  /
  /
WCONINJE
     WARM1   WATER  OPEN  RATE  530  /
  /

WTEMP
WARM1  71.5/
/

TSTEP
18*10
/

WCONPROD
    WARM1    OPEN   WRAT   1*    530  /
  /
WCONINJE
    COLD1    WATER  OPEN  RATE   530  /
  /

WTEMP
COLD1  53/
/

TSTEP
18*10
/

WCONPROD
     COLD1   OPEN   WRAT  1*    530  /
  /
WCONINJE
     WARM1   WATER  OPEN  RATE  530  /
  /

WTEMP
WARM1  71.5/
/

TSTEP
18*10
/

WCONPROD
    WARM1    OPEN   WRAT   1*    530  /
  /
WCONINJE
    COLD1    WATER  OPEN  RATE   530  /
  /

WTEMP
COLD1  53/
/

TSTEP
18*10
/

WCONPROD
     COLD1   OPEN   WRAT  1*    530  /
  /
WCONINJE
     WARM1   WATER  OPEN  RATE  530  /
  /

WTEMP
WARM1  71.5/
/

TSTEP
18*10
/

WCONPROD
    WARM1    OPEN   WRAT   1*    530  /
  /
WCONINJE
    COLD1    WATER  OPEN  RATE   530  /
  /

WTEMP
COLD1  53/
/

TSTEP
18*10
/

WCONPROD
     COLD1   OPEN   WRAT  1*    530  /
  /
WCONINJE
     WARM1   WATER  OPEN  RATE  530  /
  /

WTEMP
WARM1  71.5/
/

TSTEP
18*10
/

WCONPROD
    WARM1    OPEN   WRAT   1*    530  /
  /
WCONINJE
    COLD1    WATER  OPEN  RATE   530  /
  /

WTEMP
COLD1  53/
/

TSTEP
18*10
/

WCONPROD
     COLD1   OPEN   WRAT  1*    530  /
  /
WCONINJE
     WARM1   WATER  OPEN  RATE  530  /
  /

WTEMP
WARM1  71.5/
/

TSTEP
18*10
/

WCONPROD
    WARM1    OPEN   WRAT   1*    530  /
  /
WCONINJE
    COLD1    WATER  OPEN  RATE   530  /
  /

WTEMP
COLD1  53/
/

TSTEP
18*10
/

WCONPROD
     COLD1   OPEN   WRAT  1*    530  /
  /
WCONINJE
     WARM1   WATER  OPEN  RATE  530  /
  /

WTEMP
WARM1  71.5/
/

TSTEP
18*10
/

WCONPROD
    WARM1    OPEN   WRAT   1*    530  /
  /
WCONINJE
    COLD1    WATER  OPEN  RATE   530  /
  /

WTEMP
COLD1  53/
/

TSTEP
18*10
/

WCONPROD
     COLD1   OPEN   WRAT  1*    530  /
  /
WCONINJE
     WARM1   WATER  OPEN  RATE  530  /
  /

WTEMP
WARM1  71.5/
/

TSTEP
18*10
/

WCONPROD
    WARM1    OPEN   WRAT   1*    530  /
  /
WCONINJE
    COLD1    WATER  OPEN  RATE   530  /
  /

WTEMP
COLD1  53/
/

TSTEP
18*10
/

WCONPROD
     COLD1   OPEN   WRAT  1*    530  /
  /
WCONINJE
     WARM1   WATER  OPEN  RATE  530  /
  /

WTEMP
WARM1  71.5/
/

TSTEP
18*10
/

WCONPROD
    WARM1    OPEN   WRAT   1*    530  /
  /
WCONINJE
    COLD1    WATER  OPEN  RATE   530  /
  /

WTEMP
COLD1  53/
/

TSTEP
18*10
/

WCONPROD
     COLD1   OPEN   WRAT  1*    530  /
  /
WCONINJE
     WARM1   WATER  OPEN  RATE  530  /
  /

WTEMP
WARM1  71.5/
/

TSTEP
18*10
/

WCONPROD
    WARM1    OPEN   WRAT   1*    530  /
  /
WCONINJE
    COLD1    WATER  OPEN  RATE   530  /
  /

WTEMP
COLD1  53/
/

TSTEP
18*10
/

WCONPROD
     COLD1   OPEN   WRAT  1*    530  /
  /
WCONINJE
     WARM1   WATER  OPEN  RATE  530  /
  /

WTEMP
WARM1  71.5/
/

TSTEP
18*10
/

WCONPROD
    WARM1    OPEN   WRAT   1*    530  /
  /
WCONINJE
    COLD1    WATER  OPEN  RATE   530  /
  /

WTEMP
COLD1  53/
/

TSTEP
18*10
/

WCONPROD
     COLD1   OPEN   WRAT  1*    530  /
  /
WCONINJE
     WARM1   WATER  OPEN  RATE  530  /
  /

WTEMP
WARM1  71.5/
/

TSTEP
18*10
/

WCONPROD
    WARM1    OPEN   WRAT   1*    530  /
  /
WCONINJE
    COLD1    WATER  OPEN  RATE   530  /
  /

WTEMP
COLD1  53/
/

TSTEP
18*10
/

WCONPROD
     COLD1   OPEN   WRAT  1*    530  /
  /
WCONINJE
     WARM1   WATER  OPEN  RATE  530  /
  /

WTEMP
WARM1  71.5/
/

TSTEP
18*10
/

WCONPROD
    WARM1    OPEN   WRAT   1*    530  /
  /
WCONINJE
    COLD1    WATER  OPEN  RATE   530  /
  /

WTEMP
COLD1  53/
/

TSTEP
18*10
/

WCONPROD
     COLD1   OPEN   WRAT  1*    530  /
  /
WCONINJE
     WARM1   WATER  OPEN  RATE  530  /
  /

WTEMP
WARM1  71.5/
/

TSTEP
18*10
/

WCONPROD
    WARM1    OPEN   WRAT   1*    530  /
  /
WCONINJE
    COLD1    WATER  OPEN  RATE   530  /
  /

WTEMP
COLD1  53/
/

TSTEP
18*10
/

WCONPROD
     COLD1   OPEN   WRAT  1*    530  /
  /
WCONINJE
     WARM1   WATER  OPEN  RATE  530  /
  /

WTEMP
WARM1  71.5/
/

TSTEP
18*10
/

WCONPROD
    WARM1    OPEN   WRAT   1*    530  /
  /
WCONINJE
    COLD1    WATER  OPEN  RATE   530  /
  /

WTEMP
COLD1  53/
/

TSTEP
18*10
/

WCONPROD
     COLD1   OPEN   WRAT  1*    530  /
  /
WCONINJE
     WARM1   WATER  OPEN  RATE  530  /
  /

WTEMP
WARM1  71.5/
/

TSTEP
18*10
/

WCONPROD
    WARM1    OPEN   WRAT   1*    530  /
  /
WCONINJE
    COLD1    WATER  OPEN  RATE   530  /
  /

WTEMP
COLD1  53/
/

TSTEP
18*10
/

WCONPROD
     COLD1   OPEN   WRAT  1*    530  /
  /
WCONINJE
     WARM1   WATER  OPEN  RATE  530  /
  /

WTEMP
WARM1  71.5/
/

TSTEP
18*10
/

WCONPROD
    WARM1    OPEN   WRAT   1*    530  /
  /
WCONINJE
    COLD1    WATER  OPEN  RATE   530  /
  /

WTEMP
COLD1  53/
/

TSTEP
18*10
/

WCONPROD
     COLD1   OPEN   WRAT  1*    530  /
  /
WCONINJE
     WARM1   WATER  OPEN  RATE  530  /
  /

WTEMP
WARM1  71.5/
/

TSTEP
18*10
/

WCONPROD
    WARM1    OPEN   WRAT   1*    530  /
  /
WCONINJE
    COLD1    WATER  OPEN  RATE   530  /
  /

WTEMP
COLD1  53/
/

TSTEP
18*10
/

WCONPROD
     COLD1   OPEN   WRAT  1*    530  /
  /
WCONINJE
     WARM1   WATER  OPEN  RATE  530  /
  /

WTEMP
WARM1  71.5/
/

TSTEP
18*10
/

END
